ACENTRIC_FACTOR=  0.035
AOA= 8.0
CFL_ADAPT=  YES
CFL_ADAPT_PARAM=  ( .5, 1.25, 4.0, 200.0 )
CFL_NUMBER=  4.0
CONV_CAUCHY_ELEMS=  100
CONV_CAUCHY_EPS=  5E-8
CONV_CRITERIA=  CAUCHY
CONV_FILENAME=  history
CONV_NUM_METHOD_FLOW=  JST
CONV_NUM_METHOD_TURB=  SCALAR_UPWIND
CONV_RESIDUAL_MINVAL=  -7.5
CONV_STARTITER=  10
CRITICAL_DENSITY=  263.0
CRITICAL_PRESSURE=  3588550.0
CRITICAL_TEMPERATURE=  131.00
DEFORM_CONSOLE_OUTPUT=  YES
DEFORM_LINEAR_SOLVER=  BCGSTAB
DEFORM_LINEAR_SOLVER_ERROR= 1E-14
DEFORM_LINEAR_SOLVER_ITER=  2000
DEFORM_NONLINEAR_ITER=  1
DEFORM_STIFFNESS_TYPE=  WALL_DISTANCE
DV_FILENAME= surface_positions_1.dat
DV_KIND=  SURFACE_FILE
DV_MARKER= QUAD_bdy4,QUAD_bdy5,QUAD_bdy6
DV_PARAM=  ( WING, 1, 0, 0, 0.0, 0.0, 1.0 )
FLUID_MODEL=  STANDARD_AIR
FREESTREAM_TEMPERATURE=  288.15
GAMMA_VALUE=  1.4
GAS_CONSTANT=  287.058
GRAD_OBJFUNC_FILENAME=  of_grad.dat
HISTORY_OUTPUT=  (ITER, AERO_COEFF)
ITER=  29999
JST_SENSOR_COEFF=  ( 0.5, 0.02 )
KIND_TURB_MODEL=  SA_NEG
LINEAR_SOLVER=  FGMRES
LINEAR_SOLVER_ERROR=  1E-7
LINEAR_SOLVER_ITER=  12
LINEAR_SOLVER_PREC=  ILU
MACH_NUMBER= 0.2
MARKER_FAR=  ( QUAD_bdy3 )
MARKER_HEATFLUX=  ( QUAD_bdy4, 0.0,QUAD_bdy5, 0.0,QUAD_bdy6, 0.0 )
MARKER_MONITORING=  ( QUAD_bdy4,QUAD_bdy5,QUAD_bdy6 )
MARKER_PLOTTING=  ( QUAD_bdy4,QUAD_bdy5,QUAD_bdy6 )
MARKER_SYM=  ( TRI_bdy1, TRI_bdy2,QUAD_bdy1,QUAD_bdy2,TRI_bdy,QUAD_bdy )
MATH_PROBLEM=  DIRECT
MESH_FILENAME= mesh_in.su2
MESH_FORMAT=  SU2
MESH_OUT_FILENAME= mesh_out.su2
MGCYCLE=  V_CYCLE
MGLEVEL=  0
MG_CORRECTION_SMOOTH=  ( 0, 0, 0, 0 )
MG_DAMP_PROLONGATION=  0.7
MG_DAMP_RESTRICTION=  0.7
MG_POST_SMOOTH=  ( 2, 2, 2, 2 )
MG_PRE_SMOOTH=  ( 1, 2, 2, 2 )
MUSCL_FLOW=  YES
MUSCL_TURB=  NO
MU_CONSTANT=  1.716E-5
MU_REF=  1.716E-5
MU_T_REF=  273.15
NUM_METHOD_GRAD=  GREEN_GAUSS
OUTPUT_FILES=  (RESTART, PARAVIEW, SURFACE_PARAVIEW, SURFACE_CSV)
REF_AREA=  0
REF_LENGTH=  1
REF_ORIGIN_MOMENT_X=  0.25
REF_ORIGIN_MOMENT_Y=  0.00
REF_ORIGIN_MOMENT_Z=  0.00
RESTART_ADJ_FILENAME=  restart_adj.dat
RESTART_FILENAME=  restart_flow.dat
RESTART_SOL=  NO
REYNOLDS_LENGTH=  1
REYNOLDS_NUMBER= 5.0e6
RK_ALPHA_COEFF=  ( 0.66667, 0.66667, 1.000000 )
SCREEN_OUTPUT=  (INNER_ITER, RMS_DENSITY, RMS_NU_TILDE, LIFT, DRAG, AVG_CFL,LINSOL_RESIDUAL)
SIDESLIP_ANGLE=  0.0
SLOPE_LIMITER_FLOW=  VENKATAKRISHNAN
SLOPE_LIMITER_TURB=  VENKATAKRISHNAN
SOLUTION_ADJ_FILENAME=  solution_adj.dat
SOLUTION_FILENAME=  solution_flow.dat
SOLVER=  RANS
SURFACE_ADJ_FILENAME=  surface_adjoint
SURFACE_FILENAME=  surface_flow
SUTHERLAND_CONSTANT=  110.4
TABULAR_FORMAT=  CSV
TIME_DISCRE_FLOW=  EULER_IMPLICIT
TIME_DISCRE_TURB=  EULER_IMPLICIT
VENKAT_LIMITER_COEFF=  1.0
VISCOSITY_MODEL=  SUTHERLAND
VOLUME_ADJ_FILENAME=  adjoint
VOLUME_FILENAME=  flow
